Version 4
SHEET 640 640 1
FLAG 96 -80 inp
IOPIN 96 -80 In
FLAG 256 -80 outp
IOPIN 256 -80 Out
